2
Coordinates from ORCA-job nitrogen_0 E -109.285657098635
  N       0.000000      0.000000      0.000000
  N       1.500000      0.000000      0.000000
2
Coordinates from ORCA-job nitrogen_0 E -109.372370897624
  N       0.079377      0.000000      0.000000
  N       1.420623      0.000000      0.000000
2
Coordinates from ORCA-job nitrogen_0 E -109.440976409648
  N       0.158753      0.000000      0.000000
  N       1.341247      0.000000      0.000000
2
Coordinates from ORCA-job nitrogen_0 E -109.428199156251
  N       0.236680      0.000000      0.000000
  N       1.263320      0.000000      0.000000
2
Coordinates from ORCA-job nitrogen_0 E -109.450646635243
  N       0.185436      0.000000      0.000000
  N       1.314564      0.000000      0.000000
2
Coordinates from ORCA-job nitrogen_0 E -109.451218512820
  N       0.191273      0.000000      0.000000
  N       1.308727      0.000000      0.000000
2
Coordinates from ORCA-job nitrogen_0 E -109.451264750608
  N       0.193557      0.000000      0.000000
  N       1.306443      0.000000      0.000000
2
Coordinates from ORCA-job nitrogen_0 E -109.451264901287
  N       0.193430      0.000000      0.000000
  N       1.306570      0.000000      0.000000
2
Coordinates from ORCA-job nitrogen_0 E -109.451264901298
  N       0.193431      0.000000      0.000000
  N       1.306569      0.000000      0.000000
