2
Coordinates from ORCA-job nitrogen_p E -108.765405978949
  N       0.000000      0.000000      0.000000
  N       1.500000      0.000000      0.000000
2
Coordinates from ORCA-job nitrogen_p E -108.815464033396
  N       0.079377      0.000000      0.000000
  N       1.420623      0.000000      0.000000
2
Coordinates from ORCA-job nitrogen_p E -108.837232024687
  N       0.158753      0.000000      0.000000
  N       1.341247      0.000000      0.000000
2
Coordinates from ORCA-job nitrogen_p E -108.837583354236
  N       0.144189      0.000000      0.000000
  N       1.355811      0.000000      0.000000
2
Coordinates from ORCA-job nitrogen_p E -108.837766675941
  N       0.149335      0.000000      0.000000
  N       1.350665      0.000000      0.000000
2
Coordinates from ORCA-job nitrogen_p E -108.837767467684
  N       0.149704      0.000000      0.000000
  N       1.350296      0.000000      0.000000
2
Coordinates from ORCA-job nitrogen_p E -108.837767468533
  N       0.149690      0.000000      0.000000
  N       1.350310      0.000000      0.000000
