2
Coordinates from ORCA-job nitrogen_n E -109.310373744820
  N       0.000000      0.000000      0.000000
  N       1.500000      0.000000      0.000000
2
Coordinates from ORCA-job nitrogen_n E -109.358256118779
  N       0.079377      0.000000      0.000000
  N       1.420623      0.000000      0.000000
2
Coordinates from ORCA-job nitrogen_n E -109.372185123979
  N       0.158753      0.000000      0.000000
  N       1.341247      0.000000      0.000000
2
Coordinates from ORCA-job nitrogen_n E -109.374194938627
  N       0.131063      0.000000      0.000000
  N       1.368937      0.000000      0.000000
2
Coordinates from ORCA-job nitrogen_n E -109.374582168733
  N       0.138348      0.000000      0.000000
  N       1.361652      0.000000      0.000000
2
Coordinates from ORCA-job nitrogen_n E -109.374588618066
  N       0.139457      0.000000      0.000000
  N       1.360543      0.000000      0.000000
2
Coordinates from ORCA-job nitrogen_n E -109.374588637501
  N       0.139396      0.000000      0.000000
  N       1.360604      0.000000      0.000000
