2
Coordinates from ORCA-job co_n E -113.140580295914
  C       0.000000      0.000000      0.000000
  O       1.500000      0.000000      0.000000
2
Coordinates from ORCA-job co_n E -113.173514673542
  C       0.079377      0.000000      0.000000
  O       1.420623      0.000000      0.000000
2
Coordinates from ORCA-job co_n E -113.171919293338
  C       0.158753      0.000000      0.000000
  O       1.341247      0.000000      0.000000
2
Coordinates from ORCA-job co_n E -113.179390788004
  C       0.111555      0.000000      0.000000
  O       1.388445      0.000000      0.000000
2
Coordinates from ORCA-job co_n E -113.179695329746
  C       0.118225      0.000000      0.000000
  O       1.381775      0.000000      0.000000
2
Coordinates from ORCA-job co_n E -113.179713471341
  C       0.120378      0.000000      0.000000
  O       1.379622      0.000000      0.000000
2
Coordinates from ORCA-job co_n E -113.179713529905
  C       0.120257      0.000000      0.000000
  O       1.379743      0.000000      0.000000
