10
Coordinates from ORCA-job eg_n E -230.027254565026
  C      -1.815528      0.000000     -1.701853
  H      -1.815528      1.019690     -2.101109
  H      -0.932450     -0.509845     -2.101109
  C      -1.815528      0.000000     -0.171865
  H      -2.698606      0.509845      0.227391
  H      -1.815528     -1.019690      0.227391
  O      -2.976764     -0.670439     -2.226869
  H      -3.617939     -0.008422     -2.516756
  O      -0.654292      0.670439      0.353152
  H      -0.788201      1.625327      0.292609
10
Coordinates from ORCA-job eg_n E -230.035811420429
  C      -1.829846      0.012007     -1.699961
  H      -1.843019      1.038811     -2.100855
  H      -0.925553     -0.481859     -2.068775
  C      -1.817154      0.020393     -0.179323
  H      -2.710170      0.532115      0.208828
  H      -1.834241     -1.005958      0.192490
  O      -2.985656     -0.720658     -2.240597
  H      -3.684580     -0.073409     -2.582543
  O      -0.609755      0.646654      0.387437
  H      -0.690385      1.648810      0.364281
10
Coordinates from ORCA-job eg_n E -230.036968285464
  C      -1.833806      0.030309     -1.697614
  H      -1.876466      1.055203     -2.096781
  H      -0.912491     -0.442118     -2.050624
  C      -1.829197      0.034319     -0.184092
  H      -2.716615      0.559723      0.194574
  H      -1.862596     -0.996207      0.173397
  O      -2.972505     -0.752202     -2.240556
  H      -3.704952     -0.123729     -2.599816
  O      -0.593685      0.616722      0.405083
  H      -0.628047      1.634885      0.377412
10
Coordinates from ORCA-job eg_n E -230.037301655323
  C      -1.833926      0.046827     -1.695406
  H      -1.907763      1.068912     -2.093583
  H      -0.899263     -0.403114     -2.041308
  C      -1.842550      0.042212     -0.183266
  H      -2.722693      0.581034      0.190308
  H      -1.889294     -0.989957      0.166505
  O      -2.953455     -0.772701     -2.242331
  H      -3.708589     -0.159559     -2.602652
  O      -0.591389      0.591329      0.423488
  H      -0.581437      1.611921      0.359227
10
Coordinates from ORCA-job eg_n E -230.037716339611
  C      -1.832203      0.072137     -1.689615
  H      -1.954964      1.088799     -2.086391
  H      -0.878328     -0.340698     -2.026274
  C      -1.864791      0.051461     -0.178491
  H      -2.737349      0.605373      0.187347
  H      -1.927359     -0.982118      0.160985
  O      -2.918566     -0.797105     -2.249566
  H      -3.705887     -0.205820     -2.596811
  O      -0.600307      0.559268      0.459120
  H      -0.510608      1.565609      0.300679
10
Coordinates from ORCA-job eg_n E -230.038179379489
  C      -1.828507      0.093399     -1.682785
  H      -1.992712      1.104051     -2.079443
  H      -0.859867     -0.287588     -2.011991
  C      -1.884892      0.057972     -0.172461
  H      -2.757494      0.616867      0.184907
  H      -1.953442     -0.976156      0.160661
  O      -2.884868     -0.811172     -2.260819
  H      -3.698938     -0.236468     -2.580873
  O      -0.619249      0.543984      0.495848
  H      -0.450390      1.512017      0.227937
10
Coordinates from ORCA-job eg_n E -230.038744620336
  C      -1.821234      0.106880     -1.675646
  H      -2.015031      1.113507     -2.072611
  H      -0.843897     -0.252322     -2.001717
  C      -1.900320      0.059580     -0.165978
  H      -2.782754      0.611846      0.180809
  H      -1.964413     -0.973959      0.167685
  O      -2.856292     -0.811571     -2.277984
  H      -3.688823     -0.245000     -2.550567
  O      -0.647551      0.551966      0.529212
  H      -0.410045      1.455979      0.147779
10
Coordinates from ORCA-job eg_n E -230.039192671739
  C      -1.811114      0.112648     -1.668663
  H      -2.016698      1.120749     -2.062335
  H      -0.830188     -0.237346     -1.993605
  C      -1.911000      0.056196     -0.161408
  H      -2.811101      0.592034      0.170721
  H      -1.966547     -0.977165      0.175483
  O      -2.833881     -0.799505     -2.300549
  H      -3.682021     -0.239332     -2.504063
  O      -0.681776      0.579731      0.552301
  H      -0.386034      1.408896      0.073100
10
Coordinates from ORCA-job eg_n E -230.039540319913
  C      -1.802827      0.123061     -1.664285
  H      -2.014720      1.133713     -2.051461
  H      -0.816979     -0.218022     -1.983269
  C      -1.923676      0.057295     -0.160361
  H      -2.839906      0.577545      0.154897
  H      -1.975344     -0.977852      0.173362
  O      -2.808575     -0.789251     -2.323781
  H      -3.684275     -0.253622     -2.449345
  O      -0.715238      0.606103      0.569481
  H      -0.348821      1.357935      0.015745
10
Coordinates from ORCA-job eg_n E -230.039985995363
  C      -1.792660      0.124359     -1.664311
  H      -1.977973      1.146273     -2.035709
  H      -0.809483     -0.228343     -1.979352
  C      -1.930067      0.052538     -0.161498
  H      -2.864830      0.552278      0.136369
  H      -1.979666     -0.986406      0.164912
  O      -2.795058     -0.764230     -2.351557
  H      -3.693789     -0.261329     -2.377476
  O      -0.750566      0.639977      0.572323
  H      -0.336268      1.341790     -0.022718
10
Coordinates from ORCA-job eg_n E -230.040457082847
  C      -1.788429      0.139916     -1.669493
  H      -1.954172      1.168636     -2.023662
  H      -0.802452     -0.213123     -1.974218
  C      -1.942667      0.060442     -0.165929
  H      -2.887263      0.551079      0.116666
  H      -2.000545     -0.984545      0.142498
  O      -2.773045     -0.749176     -2.376969
  H      -3.705774     -0.314387     -2.301633
  O      -0.780376      0.655501      0.577216
  H      -0.295637      1.302562     -0.043495
10
Coordinates from ORCA-job eg_n E -230.040840493629
  C      -1.783966      0.153048     -1.680928
  H      -1.914100      1.189852     -2.017219
  H      -0.799031     -0.210388     -1.976583
  C      -1.952157      0.067681     -0.172940
  H      -2.904340      0.551324      0.098543
  H      -2.017780     -0.983658      0.115714
  O      -2.761814     -0.725131     -2.400287
  H      -3.712779     -0.370131     -2.214988
  O      -0.809431      0.665603      0.578195
  H      -0.274963      1.278706     -0.048523
10
Coordinates from ORCA-job eg_n E -230.041085814530
  C      -1.780168      0.168706     -1.691585
  H      -1.885879      1.211648     -2.016724
  H      -0.794603     -0.200851     -1.978462
  C      -1.963294      0.076620     -0.181299
  H      -2.922066      0.554116      0.079642
  H      -2.032219     -0.979057      0.094151
  O      -2.754368     -0.698466     -2.420454
  H      -3.706979     -0.430124     -2.131114
  O      -0.838419      0.677331      0.580984
  H      -0.252364      1.236983     -0.054157
10
Coordinates from ORCA-job eg_n E -230.041225825590
  C      -1.776170      0.180530     -1.701655
  H      -1.854318      1.229101     -2.018369
  H      -0.790784     -0.198588     -1.979535
  C      -1.972900      0.082341     -0.190386
  H      -2.939758      0.548448      0.061088
  H      -2.036343     -0.976632      0.078012
  O      -2.758012     -0.664934     -2.437369
  H      -3.697330     -0.479764     -2.055246
  O      -0.868321      0.696631      0.582166
  H      -0.236424      1.199773     -0.057724
10
Coordinates from ORCA-job eg_n E -230.041299072105
  C      -1.774339      0.186494     -1.705325
  H      -1.843051      1.236972     -2.019986
  H      -0.786875     -0.194337     -1.976763
  C      -1.979034      0.085083     -0.195362
  H      -2.952597      0.539168      0.050674
  H      -2.030996     -0.974488      0.075545
  O      -2.762602     -0.644813     -2.446171
  H      -3.691952     -0.502657     -2.021893
  O      -0.888462      0.719495      0.582223
  H      -0.220454      1.165988     -0.061960
10
Coordinates from ORCA-job eg_n E -230.041428461983
  C      -1.773767      0.192498     -1.709607
  H      -1.831426      1.244530     -2.021876
  H      -0.781974     -0.188184     -1.971594
  C      -1.986260      0.088204     -0.201795
  H      -2.970563      0.519460      0.038735
  H      -2.013828     -0.971024      0.077445
  O      -2.771680     -0.618292     -2.456307
  H      -3.688598     -0.526142     -1.989362
  O      -0.919894      0.764875      0.577855
  H      -0.192370      1.110980     -0.062511
10
Coordinates from ORCA-job eg_n E -230.041608661787
  C      -1.775309      0.194442     -1.713672
  H      -1.828521      1.246532     -2.026124
  H      -0.776493     -0.180656     -1.965619
  C      -1.990375      0.089865     -0.208119
  H      -2.984125      0.495901      0.031575
  H      -1.986978     -0.966840      0.084944
  O      -2.781490     -0.599860     -2.462177
  H      -3.693329     -0.534240     -1.975637
  O      -0.950316      0.817903      0.567052
  H      -0.163424      1.053859     -0.051240
10
Coordinates from ORCA-job eg_n E -230.041804817305
  C      -1.780098      0.191795     -1.717465
  H      -1.835612      1.242798     -2.031171
  H      -0.770523     -0.170129     -1.957967
  C      -1.990940      0.089990     -0.213781
  H      -2.990630      0.471982      0.032699
  H      -1.952455     -0.961752      0.096425
  O      -2.788626     -0.594255     -2.463294
  H      -3.707623     -0.525026     -1.983732
  O      -0.977651      0.873883      0.547935
  H      -0.136202      0.997620     -0.028669
10
Coordinates from ORCA-job eg_n E -230.041949662834
  C      -1.786161      0.192801     -1.725048
  H      -1.841811      1.244031     -2.038491
  H      -0.769601     -0.160517     -1.959142
  C      -1.990749      0.094755     -0.221840
  H      -2.995459      0.456212      0.030733
  H      -1.923370     -0.952156      0.101563
  O      -2.796554     -0.586931     -2.466490
  H      -3.713890     -0.532297     -1.977412
  O      -1.001363      0.924606      0.525033
  H      -0.111404      0.936402      0.012076
10
Coordinates from ORCA-job eg_n E -230.042144362841
  C      -1.800230      0.182657     -1.717421
  H      -1.872478      1.232923     -2.027076
  H      -0.770249     -0.145399     -1.943109
  C      -1.986755      0.093765     -0.212413
  H      -2.984039      0.453852      0.065230
  H      -1.899152     -0.949602      0.115679
  O      -2.778489     -0.628330     -2.450314
  H      -3.734879     -0.483906     -2.060673
  O      -1.001480      0.943331      0.506691
  H      -0.102610      0.917614      0.004387
10
Coordinates from ORCA-job eg_n E -230.042546110476
  C      -1.810382      0.200318     -1.730580
  H      -1.864648      1.258280     -2.023962
  H      -0.789381     -0.144223     -1.967706
  C      -1.989567      0.116317     -0.218622
  H      -2.992727      0.466763      0.057943
  H      -1.899873     -0.932103      0.095490
  O      -2.774629     -0.615876     -2.461227
  H      -3.707866     -0.548810     -2.010680
  O      -1.015869      0.967679      0.488314
  H      -0.085419      0.848561      0.052012
10
Coordinates from ORCA-job eg_n E -230.042616371425
  C      -1.810784      0.202829     -1.719356
  H      -1.927044      1.253896     -2.028989
  H      -0.795204     -0.126158     -1.979693
  C      -1.984906      0.124770     -0.207618
  H      -2.989657      0.483483      0.059339
  H      -1.905641     -0.922915      0.108295
  O      -2.749005     -0.663978     -2.443727
  H      -3.700097     -0.518388     -2.061589
  O      -0.991327      0.954591      0.505868
  H      -0.076695      0.828775      0.048453
10
Coordinates from ORCA-job eg_n E -230.042726597751
  C      -1.810861      0.203077     -1.731270
  H      -1.915335      1.253157     -2.041876
  H      -0.794605     -0.129344     -1.988649
  C      -1.981011      0.125475     -0.219562
  H      -2.989978      0.466037      0.048072
  H      -1.878674     -0.919152      0.103662
  O      -2.769152     -0.648006     -2.448609
  H      -3.710991     -0.524997     -2.032464
  O      -1.009567      0.987442      0.486706
  H      -0.070186      0.803218      0.104972
10
Coordinates from ORCA-job eg_n E -230.042759078087
  C      -1.808576      0.200625     -1.729002
  H      -1.897452      1.251113     -2.036953
  H      -0.795218     -0.139200     -1.984632
  C      -1.981313      0.120737     -0.215968
  H      -2.990645      0.461860      0.048702
  H      -1.882590     -0.927228      0.098646
  O      -2.771545     -0.646814     -2.443372
  H      -3.714951     -0.514533     -2.035183
  O      -1.012676      0.973749      0.495182
  H      -0.075395      0.836596      0.083561
10
Coordinates from ORCA-job eg_n E -230.042772603205
  C      -1.809140      0.200347     -1.728451
  H      -1.906504      1.249570     -2.039354
  H      -0.796473     -0.137503     -1.988541
  C      -1.979062      0.122094     -0.215452
  H      -2.989860      0.460895      0.048347
  H      -1.877590     -0.925211      0.100054
  O      -2.770787     -0.653509     -2.439701
  H      -3.715713     -0.507549     -2.042467
  O      -1.012653      0.978307      0.493541
  H      -0.072579      0.829465      0.093007
10
Coordinates from ORCA-job eg_n E -230.042776237935
  C      -1.808653      0.200365     -1.728333
  H      -1.909663      1.248550     -2.041634
  H      -0.796758     -0.137191     -1.991205
  C      -1.977594      0.122613     -0.215432
  H      -2.989757      0.459810      0.046609
  H      -1.875470     -0.924807      0.099582
  O      -2.771889     -0.656004     -2.437472
  H      -3.716098     -0.504105     -2.043405
  O      -1.013502      0.979771      0.493455
  H      -0.070977      0.827903      0.098818
10
Coordinates from ORCA-job eg_n E -230.042776722666
  C      -1.808563      0.200351     -1.728369
  H      -1.909739      1.248320     -2.042278
  H      -0.796575     -0.137046     -1.991402
  C      -1.977333      0.122695     -0.215497
  H      -2.989707      0.459580      0.046434
  H      -1.875414     -0.924923      0.099113
  O      -2.772364     -0.656123     -2.437090
  H      -3.716062     -0.503747     -2.043007
  O      -1.014027      0.979849      0.493386
  H      -0.070578      0.827950      0.099692
