!B3LYP D3BJ 6-311G
!RIJCOSX AutoAux printbasis
!Opt Freq
!DEFGRID3 TightSCF
*xyz 1 2
C       -1.815527635      0.000000000     -1.701852812
H       -1.815527635      1.019690000     -2.101108812
H       -0.932449635     -0.509845000     -2.101108811
C       -1.815527635      0.000000000     -0.171864812
H       -2.698605635      0.509845000      0.227391188
H       -1.815527635     -1.019690000      0.227391188
O       -2.976763524     -0.670439431     -2.226869171
H       -3.617938706     -0.008421754     -2.516756404
O       -0.654291745      0.670439431      0.353151548
H       -0.788200812      1.625327153      0.292608766
*