10
Coordinates from ORCA-job eg_p E -229.759633716901
  C      -1.815528      0.000000     -1.701853
  H      -1.815528      1.019690     -2.101109
  H      -0.932450     -0.509845     -2.101109
  C      -1.815528      0.000000     -0.171865
  H      -2.698606      0.509845      0.227391
  H      -1.815528     -1.019690      0.227391
  O      -2.976764     -0.670439     -2.226869
  H      -3.617939     -0.008422     -2.516756
  O      -0.654292      0.670439      0.353152
  H      -0.788201      1.625327      0.292609
10
Coordinates from ORCA-job eg_p E -229.768031451832
  C      -1.814011      0.028159     -1.731556
  H      -1.803892      1.047893     -2.124001
  H      -0.932725     -0.508215     -2.085959
  C      -1.829027      0.009252     -0.157794
  H      -2.715327      0.528128      0.220908
  H      -1.820909     -1.013143      0.208759
  O      -2.958253     -0.678817     -2.214525
  H      -3.665025     -0.069527     -2.524775
  O      -0.652576      0.646121      0.343084
  H      -0.738615      1.627055      0.346841
10
Coordinates from ORCA-job eg_p E -229.774519116734
  C      -1.811429      0.060643     -1.774256
  H      -1.791900      1.082924     -2.144294
  H      -0.928015     -0.506991     -2.055242
  C      -1.848507      0.026413     -0.137303
  H      -2.743930      0.550771      0.198392
  H      -1.826949     -1.009619      0.171820
  O      -2.930413     -0.674429     -2.191181
  H      -3.704783     -0.145818     -2.504569
  O      -0.663562      0.623493      0.319195
  H      -0.680872      1.609519      0.398418
10
Coordinates from ORCA-job eg_p E -229.777133888382
  C      -1.814522      0.064722     -1.813571
  H      -1.789759      1.094025     -2.159153
  H      -0.924148     -0.514039     -2.037776
  C      -1.850621      0.044249     -0.118594
  H      -2.754420      0.572054      0.179454
  H      -1.824920     -1.004367      0.145253
  O      -2.920849     -0.671580     -2.193769
  H      -3.728461     -0.185377     -2.481060
  O      -0.666495      0.621875      0.302588
  H      -0.656165      1.595344      0.457611
10
Coordinates from ORCA-job eg_p E -229.778577224602
  C      -1.823279      0.051649     -1.846948
  H      -1.797632      1.090808     -2.163672
  H      -0.922687     -0.522877     -2.032213
  C      -1.841114      0.059370     -0.095929
  H      -2.751227      0.590177      0.172794
  H      -1.820190     -0.999467      0.130747
  O      -2.922995     -0.674417     -2.215114
  H      -3.740566     -0.198431     -2.472920
  O      -0.661769      0.630954      0.297997
  H      -0.648901      1.589139      0.506241
10
Coordinates from ORCA-job eg_p E -229.779218905792
  C      -1.832013      0.036833     -1.870156
  H      -1.811487      1.084816     -2.160158
  H      -0.921917     -0.527556     -2.035315
  C      -1.830513      0.068389     -0.073816
  H      -2.742191      0.604880      0.177680
  H      -1.820986     -0.996990      0.125948
  O      -2.925216     -0.681971     -2.239634
  H      -3.741527     -0.197437     -2.474561
  O      -0.654213      0.637095      0.303044
  H      -0.650298      1.588846      0.527950
10
Coordinates from ORCA-job eg_p E -229.779420858225
  C      -1.835908      0.030948     -1.882558
  H      -1.823554      1.083656     -2.156228
  H      -0.920052     -0.525416     -2.040785
  C      -1.826629      0.071713     -0.058681
  H      -2.735820      0.615448      0.186329
  H      -1.827689     -0.996086      0.127190
  O      -2.923225     -0.689989     -2.255853
  H      -3.738669     -0.197295     -2.477394
  O      -0.648670      0.634971      0.311532
  H      -0.650144      1.588954      0.527430
10
Coordinates from ORCA-job eg_p E -229.779493277055
  C      -1.837020      0.031648     -1.890861
  H      -1.833598      1.086532     -2.155383
  H      -0.917522     -0.519134     -2.045118
  C      -1.827423      0.073504     -0.048374
  H      -2.732733      0.624893      0.193403
  H      -1.836625     -0.994958      0.130059
  O      -2.918416     -0.696831     -2.265111
  H      -3.736485     -0.203242     -2.478907
  O      -0.645508      0.628357      0.319339
  H      -0.645031      1.586136      0.521935
10
Coordinates from ORCA-job eg_p E -229.779521481854
  C      -1.837381      0.035183     -1.897125
  H      -1.841869      1.090831     -2.157341
  H      -0.915100     -0.511487     -2.047561
  C      -1.829777      0.075160     -0.041834
  H      -2.731483      0.633407      0.197102
  H      -1.845047     -0.993409      0.132738
  O      -2.913414     -0.701902     -2.269297
  H      -3.735924     -0.213298     -2.480115
  O      -0.643801      0.621178      0.325049
  H      -0.636565      1.581242      0.519366
10
Coordinates from ORCA-job eg_p E -229.779532920222
  C      -1.837991      0.038751     -1.901755
  H      -1.848562      1.094550     -2.160385
  H      -0.913193     -0.504404     -2.048541
  C      -1.831660      0.076730     -0.037852
  H      -2.730663      0.640429      0.198128
  H      -1.851602     -0.991844      0.134770
  O      -2.909793     -0.705352     -2.270648
  H      -3.736338     -0.223596     -2.481910
  O      -0.642707      0.615464      0.328898
  H      -0.627851      1.576177      0.520276
10
Coordinates from ORCA-job eg_p E -229.779536326336
  C      -1.838803      0.040595     -1.904064
  H      -1.852540      1.096337     -2.162600
  H      -0.912186     -0.500060     -2.048521
  C      -1.832210      0.077694     -0.036092
  H      -2.729918      0.644368      0.197671
  H      -1.854957     -0.990899      0.135765
  O      -2.908351     -0.707015     -2.270647
  H      -3.736861     -0.229786     -2.483756
  O      -0.642045      0.612586      0.330915
  H      -0.622489      1.573086      0.522311
10
Coordinates from ORCA-job eg_p E -229.779537203797
  C      -1.839433      0.041121     -1.904733
  H      -1.854339      1.096781     -2.163627
  H      -0.911796     -0.498112     -2.048191
  C      -1.832048      0.078067     -0.035549
  H      -2.729355      0.645904      0.197033
  H      -1.856146     -0.990554      0.136020
  O      -2.908118     -0.707636     -2.270386
  H      -3.737078     -0.232112     -2.484955
  O      -0.641693      0.611575      0.331874
  H      -0.620354      1.571871      0.523495
